*Heading
** Job name: 3G-V1 Model name: 3G-V1
** Generated by: Abaqus/CAE Version 6.8-1
*Preprint, echo=NO, model=NO, history=NO, contact=NO
**
** PARTS
**
*Part, name=PART-1
*Node
      1,      24.5,      51
      2,      15.5,      51
      3,      21.5,      51
      4,      30,      47.5
      5,      15.5,      35
      6,      0,      44.5
      7,      10.5,      51
      8,      30,      45.5
      9,      17.5,      51
      10,      9.5,      37
      11,      20.5,      37.5
      12,      28.5,      43
      13,      25.5,      41.5
      14,      7.5,      38
      15,      5.5,      51
      16,      28,      50.5
      17,      27.5,      51
      18,      30,      44.5
      19,      26.5,      51
      20,      14.5,      35
** ... 13297 like lines cut
*Element, type=CPS4R
1,      954,      956,      1042,      955
2,      954,      349,      1103,      956
3,      1104,      349,      954,      105
4,      954,      955,      1105,      105
5,      990,      951,      950,      953
6,      1078,      953,      950,      330
7,      950,      952,      1079,      330
8,      1018,      952,      950,      951
9,      984,      949,      945,      946
10,      945,      949,      1070,      948
11,      945,      948,      1009,      947
12,      1004,      946,      945,      947
13,      940,      944,      966,      941
14,      1093,      944,      940,      943
15,      981,      943,      940,      942
16,      940,      941,      999,      942
17,      935,      939,      965,      936
18,      935,      938,      1065,      939
19,      994,      938,      935,      937
20,      1045,      937,      935,      936
** ... 13088 like lines cut
*Elset, elset=M1
1, 2, 3, 4, 5, 6, 7, 8, 9, 10, 
11, 12, 13, 14, 15, 16, 17, 18, 19, 20, 
21, 22, 23, 24, 25, 26, 27, 28, 29, 30, 
31, 32, 33, 34, 35, 36, 37, 38, 39, 40, 
41, 42, 43, 44, 45, 46, 47, 48, 49, 50, 
51, 52, 53, 54, 55, 56, 57, 58, 59, 60, 
61, 62, 63, 64, 65, 66, 67, 68, 69, 70, 
71, 72, 73, 74, 75, 76, 77, 78, 79, 80, 
81, 82, 83, 84, 85, 86, 87, 88, 89, 90, 
91, 92, 93, 94, 95, 96, 97, 98, 99, 100, 
101, 102, 103, 104, 105, 106, 107, 108, 109, 110, 
111, 112, 113, 114, 115, 116, 117, 118, 119, 120, 
121, 122, 123, 124, 125, 126, 127, 128, 129, 130, 
131, 132, 133, 134, 135, 136, 137, 138, 139, 140, 
141, 142, 143, 144, 145, 146, 147, 148, 149, 150, 
151, 152, 153, 154, 155, 156, 157, 158, 159, 160, 
161, 162, 163, 164, 165, 166, 167, 168, 169, 170, 
171, 172, 173, 174, 175, 176, 177, 178, 179, 180, 
181, 182, 183, 184, 185, 186, 187, 188, 189, 190, 
191, 192, 193, 194, 195, 196, 197, 198, 199, 200, 
** ... 77 like lines cut
*Elset, elset=M2
1513, 1514, 1515, 1516, 1517, 1518, 1519, 1520, 1521, 1522, 
1523, 1524, 1525, 1526, 1527, 1528, 1529, 1530, 1531, 1532, 
1533, 1534, 1535, 1536, 1537, 1538, 1539, 1540, 1541, 1542, 
1543, 1544, 1545, 1546, 1547, 1548, 1549, 1550, 1551, 1552, 
1553, 1554, 1555, 1556, 1557, 1558, 1559, 1560, 1561, 1562, 
1563, 1564, 1565, 1566, 1567, 1568, 1569, 1570, 1571, 1572, 
1573, 1574, 1575, 1576, 1577, 1578, 1579, 1580, 1581, 1582, 
1583, 1584, 1585, 1586, 1587, 1588, 1589, 1590, 1591, 1592, 
1593, 1594, 1595, 1596, 1597, 1598, 1599, 1600, 1601, 1602, 
1603, 1604, 1605, 1606, 1607, 1608, 1609, 1610, 1611, 1612, 
1613, 1614, 1615, 1616, 1617, 1618, 1619, 1620, 1621, 1622, 
1623, 1624, 1625, 1626, 1627, 1628, 1629, 1630, 1631, 1632, 
1633, 1634, 1635, 1636, 1637, 1638, 1639, 1640, 1641, 1642, 
1643, 1644, 1645, 1646, 1647, 1648, 1649, 1650, 1651, 1652, 
1653, 1654, 1655, 1656, 1657, 1658, 1659, 1660, 1661, 1662, 
1663, 1664, 1665, 1666, 1667, 1668, 1669, 1670, 1671, 1672, 
1673, 1674, 1675, 1676, 1677, 1678, 1679, 1680, 1681, 1682, 
1683, 1684, 1685, 1686, 1687, 1688, 1689, 1690, 1691, 1692, 
1693, 1694, 1695, 1696, 1697, 1698, 1699, 1700, 1701, 1702, 
1703, 1704, 1705, 1706, 1707, 1708, 1709, 1710, 1711, 1712, 
** ... 199 like lines cut
*Elset, elset=M3
7158, 7159, 7160, 7161, 7162, 7163, 7164, 7165, 7166, 7167, 
7168, 7169, 7170, 7171, 7172, 7173, 7174, 7175, 7176, 7177, 
7178, 7179, 7180, 7181, 7182, 7183, 7184, 7185, 7186, 7187, 
7188, 7189, 7190, 7191, 7192, 7193, 7194, 7195, 7196, 7197, 
7198, 7199, 7200, 7201, 7202, 7203, 7204, 7205, 7206, 7207, 
7208, 7209, 7210, 7211, 7212, 7213, 7214, 7215, 7216, 7217, 
7218, 7219, 7220, 7221, 7222, 7223, 7224, 7225, 7226, 7227, 
7228, 7229, 7230, 7231, 7232, 7233, 7234, 7235, 7236, 7237, 
7238, 7239, 7240, 7241, 7242, 7243, 7244, 7245, 7246, 7247, 
7248, 7249, 7250, 7251, 7252, 7253, 7254, 7255, 7256, 7257, 
7258, 7259, 7260, 7261, 7262, 7263, 7264, 7265, 7266, 7267, 
7268, 7269, 7270, 7271, 7272, 7273, 7274, 7275, 7276, 7277, 
7278, 7279, 7280, 7281, 7282, 7283, 7284, 7285, 7286, 7287, 
7288, 7289, 7290, 7291, 7292, 7293, 7294, 7295, 7296, 7297, 
7298, 7299, 7300, 7301, 7302, 7303, 7304, 7305, 7306, 7307, 
7308, 7309, 7310, 7311, 7312, 7313, 7314, 7315, 7316, 7317, 
7318, 7319, 7320, 7321, 7322, 7323, 7324, 7325, 7326, 7327, 
7328, 7329, 7330, 7331, 7332, 7333, 7334, 7335, 7336, 7337, 
7338, 7339, 7340, 7341, 7342, 7343, 7344, 7345, 7346, 7347, 
7348, 7349, 7350, 7351, 7352, 7353, 7354, 7355, 7356, 7357, 
** ... 85 like lines cut
*Elset, elset=M4
823, 824, 825, 826, 827, 828, 829, 830, 831, 832, 
833, 834, 835, 836, 837, 838, 839, 840, 841, 842, 
843, 844, 845, 846, 847, 848, 849, 850, 851, 852, 
853, 854, 855, 856, 857, 858, 859, 860, 861, 862, 
863, 864, 865, 866, 867, 868, 869, 870, 871, 872, 
873, 874, 875, 876, 877, 878, 879, 880, 881, 882, 
883, 884, 885, 886, 887, 888, 889, 890, 891, 892, 
893, 894, 895, 896, 897, 898, 899, 900, 901, 902, 
903, 904, 905, 906, 907, 908, 909, 910, 911, 912, 
913, 914, 915, 916, 917, 918, 919, 920, 921, 922, 
923, 924, 925, 926, 927, 928, 929, 930, 931, 932, 
933, 934, 935, 936, 937, 938, 939, 940, 941, 942, 
943, 944, 945, 946, 947, 948, 949, 950, 951, 952, 
953, 954, 955, 956, 957, 958, 959, 960, 961, 962, 
963, 964, 965, 966, 967, 968, 969, 970, 971, 972, 
973, 974, 975, 976, 977, 978, 979, 980, 981, 982, 
983, 984, 985, 986, 987, 988, 989, 990, 991, 992, 
993, 994, 995, 996, 997, 998, 999, 1000, 1001, 1002, 
1003, 1004, 1005, 1006, 1007, 1008, 1009, 1010, 1011, 1012, 
1013, 1014, 1015, 1016, 1017, 1018, 1019, 1020, 1021, 1022, 
** ... 72 like lines cut
*Elset, elset=M5
3202, 3203, 3204, 3205, 3206, 3207, 3208, 3209, 3210, 3211, 
3212, 3213, 3214, 3215, 3216, 3217, 3218, 3219, 3220, 3221, 
3222, 3223, 3224, 3225, 3226, 3227, 3228, 3229, 3230, 3231, 
3232, 3233, 3234, 3235, 3236, 3237, 3238, 3239, 3240, 3241, 
3242, 3243, 3244, 3245, 3246, 3247, 3248, 3249, 3250, 3251, 
3252, 3253, 3254, 3255, 3256, 3257, 3258, 3259, 3260, 3261, 
3262, 3263, 3264, 3265, 3266, 3267, 3268, 12783, 12784, 12785, 
12786, 12787, 12788, 12789, 12790, 12791, 12792, 12793, 12794, 12795, 
12796, 12797, 12798, 12799, 12800, 12801, 12802, 12803, 12804, 12805, 
12806, 12807, 12808, 12809, 12810, 12811, 12812, 12813, 12814, 12815, 
12816, 12817, 12818, 12819, 12820, 12821, 12822, 12823, 12824, 12825, 
12826, 12827, 12828, 12829, 12830, 12831, 12832, 12833, 12834, 12835, 
12836, 12837, 12838, 12839, 12840, 12841, 12842, 12843, 12844, 12845, 
12846, 12847, 12848, 12849, 12850, 12851, 12852, 12853, 12854, 12855, 
12856, 12857, 12858, 12859, 12860, 12861, 12862, 12863, 12864, 12865, 
12866, 12867, 12868, 12869, 12870, 12871, 12872, 12873, 12874, 12875, 
12876, 12877, 12878, 12879, 12880, 12881, 12882, 12883, 12884, 12885, 
12886, 12887, 12888, 12889, 12890, 12891, 12892, 12893, 12894, 12895, 
12896, 12897, 12898, 12899, 12900, 12901, 12902, 12903, 12904, 12905, 
12906, 12907, 12908, 12909, 12910, 12911, 12912, 12913, 12914, 12915, 
** ... 20 like lines cut
*Elset, elset=M6
5320, 5321, 5322, 5323, 5324, 5325, 5326, 5327, 5328, 5329, 
5330, 5331, 5332, 5333, 5334, 5335, 5336, 5337, 5338, 5339, 
5340, 5341, 5342, 5343, 5344, 5345, 5346, 5347, 5348, 5349, 
5350, 5351, 5352, 5353, 5354, 5355, 5356, 5357, 5358, 5359, 
5360, 5361, 5362, 5363, 5364, 5365, 5366, 5367, 5368, 5369, 
5370, 5371, 5372, 5373, 5374, 5375, 5376, 5377, 5378, 5379, 
5380, 5381, 5382, 5383, 5384, 5385, 5386, 5387, 5388, 5389, 
5390, 5391, 5392, 5393, 5394, 5395, 5396, 5397, 5398, 5399, 
5400, 5401, 5402, 5403, 5404, 5405, 5406, 5407, 5408, 5409, 
5410, 5411, 5412, 5413, 5414, 5415, 5416, 5417, 5418, 5419, 
5420, 5421, 5422, 5423, 5424, 5425, 5426, 5427, 5428, 5429, 
5430, 5431, 5432, 5433, 5434, 5435, 5436, 5437, 5438, 5439, 
5440, 5441, 5442, 5443, 5444, 5445, 5446, 5447, 5448, 5449, 
5450, 5451, 5452, 5453, 5454, 5455, 5456, 5457, 5458, 5459, 
5460, 5461, 5462, 5463, 5464, 5465, 5466, 5467, 5468, 5469, 
5470, 5471, 5472, 5473, 5474, 5475, 5476, 5477, 5478, 5479, 
5480, 5481, 5482, 5483, 5484, 5485, 5486, 5487, 5488, 5489, 
5490, 5491, 5492, 5493, 5494, 5495, 5496, 5497, 5498, 5499, 
5500, 5501, 5502, 5503, 5504, 5505, 5506, 5507, 5508, 5509, 
5510, 5511, 5512, 5513, 5514, 5515, 5516, 5517, 5518, 5519, 
** ... 58 like lines cut
*Elset, elset=M7
563, 564, 565, 566, 567, 568, 569, 570, 571, 572, 
573, 574, 575, 576, 577, 578, 579, 580, 581, 582, 
583, 584, 585, 586, 587, 588, 589, 590, 591, 592, 
593, 594, 595, 596, 597, 598, 599, 600, 601, 602, 
603, 604, 605, 606, 607, 608, 609, 610, 611, 612, 
613, 614, 615, 616, 617, 618, 619, 620, 621, 622, 
623, 624, 625, 626, 627, 628, 629, 630, 631, 632, 
633, 634, 635, 636, 637, 638, 639, 640, 641, 642, 
643, 644, 645, 646, 647, 648, 649, 650, 651, 652, 
653, 654, 655, 656, 657, 658, 659, 660, 661, 662, 
663, 664, 665, 666, 667, 668, 669, 670, 671, 672, 
673, 674, 675, 676, 677, 678, 679, 680, 681, 682, 
683, 684, 685, 686, 687, 688, 689, 690, 691, 692, 
693, 694, 695, 696, 697, 698, 699, 700, 701, 702, 
703, 704, 705, 706, 707, 708, 709, 710, 711, 712, 
713, 714, 715, 716, 717, 718, 719, 720, 721, 722, 
723, 724, 725, 726, 727, 728, 729, 730, 731, 732, 
733, 734, 735, 736, 737, 738, 739, 740, 741, 742, 
743, 744, 745, 746, 747, 748, 749, 750, 751, 752, 
753, 754, 755, 756, 757, 758, 759, 760, 761, 762, 
** ... 30 like lines cut
*Elset, elset=M8
2301, 2302, 2303, 2304, 2305, 2306, 2307, 2308, 2309, 2310, 
2311, 2312, 2313, 2314, 2315, 2316, 2317, 2318, 2319, 2320, 
2321, 2322, 2323, 2324, 2325, 2326, 2327, 2328, 2329, 2330, 
2331, 2332, 2333, 2334, 2335, 2336, 2337, 2338, 2339, 2340, 
2341, 2342, 2343, 2344, 2345, 2346, 2347, 2348, 2349, 2350, 
2351, 2352, 2353, 2354, 2355, 2356, 2357, 2358, 2359, 2360, 
2361, 2362, 2363, 2364, 2365, 2366, 2367, 2368, 2369, 2370, 
2371, 2372, 2373, 2374, 2375, 2376, 2377, 2378, 2379, 2380, 
2381, 2382, 2383, 2384, 2385, 2386, 2387, 2388, 2389, 2390, 
2391, 2392, 2393, 2394, 2395, 2396, 2397, 2398, 2399, 2400, 
2401, 2402, 2403, 2404, 2405, 2406, 2407, 2408, 2409, 2410, 
2411, 2412, 2413, 2414, 2415, 2416, 2417, 2418, 2419, 2420, 
2421, 2422, 2423, 2424, 2425, 2426, 2427, 2428, 2429, 2430, 
2431, 2432, 2433, 2434, 2435, 2436, 2437, 2438, 2439, 2440, 
2441, 2442, 2443, 2444, 2445, 2446, 2447, 2448, 2449, 2450, 
2451, 2452, 2453, 2454, 2455, 2456, 2457, 2458, 2459, 2460, 
2461, 2462, 2463, 2464, 2465, 2466, 2467, 2468, 2469, 2470, 
2471, 2472, 2473, 2474, 2475, 2476, 2477, 2478, 2479, 2480, 
2481, 2482, 2483, 2484, 2485, 2486, 2487, 2488, 2489, 2490, 
2491, 2492, 2493, 2494, 2495, 2496, 2497, 2498, 2499, 2500, 
** ... 48 like lines cut
*Elset, elset=M9
3269, 3270, 3271, 3272, 3273, 3274, 3275, 3276, 3277, 3278, 
3279, 3280, 3281, 3282, 3283, 3284, 3285, 3286, 3287, 3288, 
3289, 3290, 3291, 3292, 3293, 3294, 3295, 3296, 3297, 3298, 
3299, 3300, 3301, 3302, 3303, 3304, 3305, 3306, 3307, 3308, 
3309, 3310, 3311, 3312, 3313, 3314, 3315, 3316, 3317, 3318, 
3319, 3320, 3321, 3322, 3323, 3324, 3325, 3326, 3327, 3328, 
3329, 3330, 3331, 3332, 3333, 3334, 3335, 3336, 3337, 3338, 
3339, 3340, 3341, 3342, 3343, 3344, 3345, 3346, 3347, 3348, 
3349, 3350, 3351, 3352, 3353, 3354, 3355, 3356, 3357, 3358, 
3359, 3360, 3361, 3362, 3363, 3364, 3365, 3366, 3367, 3368, 
3369, 3370, 3371, 3372, 3373, 3374, 3375, 3376, 3377, 3378, 
3379, 3380, 3381, 3382, 3383, 3384, 3385, 3386, 3387, 3388, 
3389, 3390, 3391, 3392, 3393, 3394, 3395, 3396, 3397, 3398, 
3399, 3400, 3401, 3402, 3403, 3404, 3405, 3406, 3407, 3408, 
3409, 3410, 3411, 3412, 3413, 3414, 3415, 3416, 3417, 3418, 
3419, 3420, 3421, 3422, 3423, 3424, 3425, 3426, 3427, 3428, 
3429, 3430, 3431, 3432, 3433, 3434, 3435, 3436, 3437, 3438, 
3439, 3440, 3441, 3442, 3443, 3444, 3445, 3446, 3447, 3448, 
3449, 3450, 3451, 3452, 3453, 3454, 3455, 3456, 3457, 3458, 
3459, 3460, 3461, 3462, 3463, 3464, 3465, 3466, 3467, 3468, 
** ... 34 like lines cut
*Elset, elset=M10
4203, 4204, 4205, 4206, 4207, 4208, 4209, 4210, 4211, 4212, 
4213, 4214, 4215, 4216, 4217, 4218, 4219, 4220, 4221, 4222, 
4223, 4224, 4225, 4226, 4227, 4228, 4229, 4230, 4231, 4232, 
4233, 4234, 4235, 4236, 4237, 4238, 4239, 4240, 4241, 4242, 
4243, 4244, 4245, 4246, 4247, 4248, 4249, 4250, 4251, 4252, 
4253, 4254, 4255, 4256, 4257, 4258, 4259, 4260, 4261, 4262, 
4263, 4264, 4265, 4266, 4267, 4268, 4269, 4270, 4271, 4272, 
4273, 4274, 4275, 4276, 4277, 4278, 4279, 4280, 4281, 4282, 
4283, 4284, 4285, 4286, 4287, 4288, 4289, 4290, 4291, 4292, 
4293, 4294, 4295, 4296, 4297, 4298, 4299, 4300, 4301, 4302, 
4303, 4304, 4305, 4306, 4307, 4308, 4309, 4310, 4311, 4312, 
4313, 4314, 4315, 4316, 4317, 4318, 4319, 4320, 4321, 4322, 
4323, 4324, 4325, 4326, 4327, 4328, 4329, 4330, 4331, 4332, 
4333, 4334, 4335, 4336, 4337, 4338, 4339, 4340, 4341, 4342, 
4343, 4344, 4345, 4346, 4347, 4348, 4349, 4350, 4351, 4352, 
4353, 4354, 4355, 4356, 4357, 4358, 4359, 4360, 4361, 4362, 
4363, 4364, 4365, 4366, 4367, 4368, 4369, 4370, 4371, 4372, 
4373, 4374, 4375, 4376, 4377, 4378, 4379, 4380, 4381, 4382, 
4383, 4384, 4385, 4386, 4387, 4388, 4389, 4390, 4391, 4392, 
4393, 4394, 4395, 4396, 4397, 4398, 4399, 4400, 4401, 4402, 
** ... 18 like lines cut
*Elset, elset=M11
4582, 4583, 4584, 4585, 4586, 4587, 4588, 4589, 4590, 4591, 
4592, 4593, 4594, 4595, 4596, 4597, 4598, 4599, 4600, 4601, 
4602, 4603, 4604, 4605, 4606, 4607, 4608, 4609, 4610, 4611, 
4612, 4613, 4614, 4615, 4616, 4617, 4618, 4619, 4620, 4621, 
4622, 4623, 4624, 4625, 4626, 4627, 4628, 4629, 4630, 4631, 
4632, 4633, 4634, 4635, 4636, 4637, 4638, 4639, 4640, 4641, 
4642, 4643, 4644, 4645, 4646, 4647, 4648, 4649, 4650, 4651, 
4652, 4653, 4654, 4655, 4656, 4657, 4658, 4659, 4660, 4661, 
4662, 4663, 4664, 4665, 4666, 4667, 4668, 4669, 4670, 4671, 
4672, 4673, 4674, 4675, 4676, 4677, 4678, 4679, 4680, 4681, 
4682, 4683, 4684, 4685, 4686, 4687, 4688, 4689, 4690, 4691, 
4692, 4693, 4694, 4695, 4696, 4697, 4698, 4699, 4700, 4701, 
4702, 4703, 4704, 4705, 4706, 4707, 4708, 4709, 4710, 4711, 
4712, 4713, 4714, 4715, 4716, 4717, 4718, 4719, 4720, 4721, 
4722, 4723, 4724, 4725, 4726, 4727, 4728, 4729, 4730, 4731, 
4732, 4733, 4734, 4735, 4736, 4737, 4738, 4739, 4740, 4741, 
4742, 4743, 4744, 4745, 4746, 4747, 4748, 4749, 4750, 4751, 
4752, 4753, 4754, 4755, 4756, 4757, 4758, 4759, 4760, 4761, 
4762, 4763, 4764, 4765, 4766, 4767, 4768, 4769, 4770, 4771, 
4772, 4773, 4774, 4775, 4776, 4777, 4778, 4779, 4780, 4781, 
4782, 4783, 4784, 4785, 4786, 4787, 4788, 4789
*Elset, elset=M12
4790, 4791, 4792, 4793, 4794, 4795, 4796, 4797, 4798, 4799, 
4800, 4801, 4802, 4803, 4804, 4805, 4806, 4807, 4808, 4809, 
4810, 4811, 4812, 4813, 4814, 4815, 4816, 4817, 4818, 4819, 
4820, 4821, 4822, 4823, 4824, 4825, 4826, 4827, 4828, 4829, 
4830, 4831, 4832, 4833, 4834, 4835, 4836, 4837, 4838, 4839, 
4840, 4841, 4842, 4843, 4844, 4845, 4846, 4847, 4848, 4849, 
4850, 4851, 4852, 4853, 4854, 4855, 4856, 4857, 4858, 4859, 
4860, 4861, 4862, 4863, 4864, 4865, 4866, 4867, 4868, 4869, 
4870, 4871, 4872, 4873, 4874, 4875, 4876, 4877, 4878, 4879, 
4880, 4881, 4882, 4883, 4884, 4885, 4886, 4887, 4888, 4889, 
4890, 4891, 4892, 4893, 4894, 4895, 4896, 4897, 4898, 4899, 
4900, 4901, 4902, 4903, 4904, 4905, 4906, 4907, 4908, 4909, 
4910, 4911, 4912, 4913, 4914, 4915, 4916, 4917, 4918, 4919, 
4920, 4921, 4922, 4923, 4924, 4925, 4926, 4927, 4928, 4929, 
4930, 4931, 4932, 4933, 4934, 4935, 4936, 4937, 4938, 4939, 
4940, 4941, 4942, 4943, 4944, 4945, 4946, 4947, 4948, 4949, 
4950, 4951, 4952, 4953, 4954, 4955, 4956, 4957, 4958, 4959, 
4960, 4961, 4962, 4963, 4964, 4965, 4966, 4967, 4968, 4969, 
4970, 4971, 4972, 4973, 4974, 4975, 4976, 4977, 4978, 4979, 
4980, 4981, 4982, 4983, 4984, 4985, 4986, 4987, 4988, 4989, 
** ... 33 like lines cut
*Elset, elset=M13
5527, 5528, 5529, 5530, 5531, 5532, 5533, 5534, 5535, 5536, 
5537, 5538, 5539, 5540, 5541, 5542, 5543, 5544, 5545, 5546, 
5547, 5548, 5549, 5550, 5551, 5552, 5553, 5554, 5555, 5556, 
5557, 5558, 5559, 5560, 5561, 5562, 5563, 5564, 5565, 5566, 
5567, 5568, 5569, 5570, 5571, 5572, 5573, 5574, 5575, 5576, 
5577, 5578, 5579, 5580, 5581, 5582, 5583, 5584, 5585, 5586, 
5587, 5588, 5589, 5590, 5591, 5592, 5593, 5594, 5595, 5596, 
5597, 5598, 5599, 5600, 5601, 5602, 5603, 5604, 5605, 5606, 
5607, 5608, 5609, 5610, 5611, 5612, 5613, 5614, 5615, 5616, 
5617, 5618, 5619, 5620, 5621, 5622, 5623, 5624, 5625, 5626, 
5627, 5628, 5629, 5630, 5631, 5632, 5633, 5634, 5635, 5636, 
5637, 5638, 5639, 5640, 5641, 5642, 5643, 5644, 5645, 5646, 
5647, 5648, 5649, 5650, 5651, 5652, 5653, 5654, 5655, 5656, 
5657, 5658, 5659, 5660, 5661, 5662, 5663, 5664, 5665, 5666, 
5667, 5668, 5669, 5670, 5671, 5672, 5673, 5674, 5675, 5676, 
5677, 5678, 5679, 5680, 5681, 5682, 5683, 5684, 5685, 5686, 
5687, 5688, 5689, 5690, 5691, 5692, 5693, 5694, 5695, 5696, 
5697, 5698, 5699, 5700, 5701, 5702, 5703, 5704, 5705, 5706, 
5707, 5708, 5709, 5710, 5711, 5712, 5713, 5714, 5715, 5716, 
5717, 5718, 5719, 5720, 5721, 5722, 5723, 5724, 5725, 5726, 
** ... 8 like lines cut
*Elset, elset=M14
5807, 5808, 5809, 5810, 5811, 5812, 5813, 5814, 5815, 5816, 
5817, 5818, 5819, 5820, 5821, 5822, 5823, 5824, 5825, 5826, 
5827, 5828, 5829, 5830, 5831, 5832, 5833, 5834, 5835, 5836, 
5837, 5838, 5839, 5840, 5841, 5842, 5843, 5844, 5845, 5846, 
5847, 5848, 5849, 5850, 5851, 5852, 5853, 5854, 5855, 5856, 
5857, 5858, 5859, 5860, 5861, 5862, 5863, 5864, 5865, 5866, 
5867, 5868, 5869, 5870, 5871, 5872, 5873, 5874, 5875, 5876, 
5877, 5878, 5879, 5880, 5881, 5882, 5883, 5884, 5885, 5886, 
5887, 5888, 5889, 5890, 5891, 5892, 5893, 5894, 5895, 5896, 
5897, 5898, 5899, 5900, 5901, 5902, 5903, 5904, 5905, 5906, 
5907, 5908, 5909, 5910, 5911, 5912, 5913, 5914, 5915, 5916, 
5917, 5918, 5919, 5920, 5921, 5922, 5923, 5924, 5925, 5926, 
5927, 5928, 5929, 5930, 5931, 5932, 5933, 5934, 5935, 5936, 
5937, 5938, 5939, 5940, 5941, 5942, 5943, 5944, 5945, 5946, 
5947, 5948, 5949, 5950, 5951, 5952, 5953, 5954, 5955, 5956, 
5957, 5958, 5959, 5960, 5961, 5962, 5963, 5964, 5965, 5966, 
5967, 5968, 5969, 5970, 5971, 5972, 5973, 5974, 5975, 5976, 
5977, 5978, 5979, 5980, 5981, 5982, 5983, 5984, 5985, 5986, 
5987, 5988, 5989, 5990, 5991, 5992, 5993, 5994, 5995, 5996, 
5997, 5998, 5999, 6000, 6001, 6002, 6003, 6004, 6005, 6006, 
** ... 47 like lines cut
*Elset, elset=M15
6711, 6712, 6713, 6714, 6715, 6716, 6717, 6718, 6719, 6720, 
6721, 6722, 6723, 6724, 6725, 6726, 6727, 6728, 6729, 6730, 
6731, 6732, 6733, 6734, 6735, 6736, 6737, 6738, 6739, 6740, 
6741, 6742, 6743, 6744, 6745, 6746, 6747, 6748, 6749, 6750, 
6751, 6752, 6753, 6754, 6755, 6756, 6757, 6758, 6759, 6760, 
6761, 6762, 6763, 6764, 6765, 6766, 6767, 6768, 6769, 6770, 
6771, 6772, 6773, 6774, 6775, 6776, 6777, 6778, 6779, 6780, 
6781, 6782, 6783, 6784, 6785, 6786, 6787, 6788, 6789, 6790, 
6791, 6792, 6793, 6794, 6795, 6796, 6797, 6798, 6799, 6800, 
6801, 6802, 6803, 6804, 6805, 6806, 6807, 6808, 6809, 6810, 
6811, 6812, 6813, 6814, 6815, 6816, 6817, 6818, 6819, 6820, 
6821, 6822, 6823, 6824, 6825, 6826, 6827, 6828, 6829, 6830, 
6831, 6832, 6833, 6834, 6835, 6836, 6837, 6838, 6839, 6840, 
6841, 6842, 6843, 6844, 6845, 6846, 6847, 6848, 6849, 6850, 
6851, 6852, 6853, 6854, 6855, 6856, 6857, 6858, 6859, 6860, 
6861, 6862, 6863, 6864, 6865, 6866, 6867, 6868, 6869, 6870, 
6871, 6872, 6873, 6874, 6875, 6876, 6877, 6878, 6879, 6880, 
6881, 6882, 6883, 6884, 6885, 6886, 6887, 6888, 6889, 6890, 
6891, 6892, 6893, 6894, 6895, 6896, 6897, 6898, 6899, 6900, 
6901, 6902, 6903, 6904, 6905, 6906, 6907, 6908, 6909, 6910, 
** ... 25 like lines cut
*Elset, elset=M16
9258, 9259, 9260, 9261, 9262, 9263, 9264, 9265, 9266, 9267, 
9268, 9269, 9270, 9271, 9272, 9273, 9274, 9275, 9276, 9277, 
9278, 9279, 9280, 9281, 9282, 9283, 9284, 9285, 9286, 9287, 
9288, 9289, 9290, 9291, 9292, 9293, 9294, 9295, 9296, 9297, 
9298, 9299, 9300, 9301, 9302, 9303, 9304, 9305, 9306, 9307, 
9308, 9309, 9310, 9311, 9312, 9313, 9314, 9315, 9316, 9317, 
9318, 9319, 9320, 9321, 9322, 9323, 9324, 9325, 9326, 9327, 
9328, 9329, 9330, 9331, 9332, 9333, 9334, 9335, 9336, 9337, 
9338, 9339, 9340, 9341, 9342, 9343, 9344, 9345, 9346, 9347, 
9348, 9349, 9350, 9351, 9352, 9353, 9354, 9355, 9356, 9357, 
9358, 9359, 9360, 9361, 9362, 9363, 9364, 9365, 9366, 9367, 
9368, 9369, 9370, 9371, 9372, 9373, 9374, 9375, 9376, 9377, 
9378, 9379, 9380, 9381, 9382, 9383, 9384, 9385, 9386, 9387, 
9388, 9389, 9390, 9391, 9392, 9393, 9394, 9395, 9396, 9397, 
9398, 9399, 9400, 9401, 9402, 9403, 9404, 9405, 9406, 9407, 
9408, 9409, 9410, 9411, 9412, 9413, 9414, 9415, 9416, 9417, 
9418, 9419, 9420, 9421, 9422, 9423, 9424, 9425, 9426, 9427, 
9428, 9429, 9430, 9431, 9432, 9433, 9434, 9435, 9436, 9437, 
9438, 9439, 9440, 9441, 9442, 9443, 9444, 9445, 9446, 9447, 
9448, 9449, 9450, 9451, 9452, 9453, 9454, 9455, 9456, 9457, 
** ... 54 like lines cut
*Elset, elset=M17
10661, 10662, 10663, 10664, 10665, 10666, 10667, 10668, 10669, 10670, 
10671, 10672, 10673, 10674, 10675, 10676, 10677, 10678, 10679, 10680, 
10681, 10682, 10683, 10684, 10685, 10686, 10687, 10688, 10689, 10690, 
10691, 10692, 10693, 10694, 10695, 10696, 10697, 10698, 10699, 10700, 
10701, 10702, 10703, 10704, 10705, 10706, 10707, 10708, 10709, 10710, 
10711, 10712, 10713, 10714, 10715, 10716, 10717, 10718, 10719, 10720, 
10721, 10722, 10723, 10724, 10725, 10726, 10727, 10728, 10729, 10730, 
10731, 10732, 10733, 10734, 10735, 10736, 10737, 10738, 10739, 10740, 
10741, 10742, 10743, 10744, 10745, 10746, 10747, 10748, 10749, 10750, 
10751, 10752, 10753, 10754, 10755, 10756, 10757, 10758, 10759, 10760, 
10761, 10762, 10763, 10764, 10765, 10766, 10767, 10768, 10769, 10770, 
10771, 10772, 10773, 10774, 10775, 10776, 10777, 10778, 10779, 10780, 
10781, 10782, 10783, 10784, 10785, 10786, 10787, 10788, 10789, 10790, 
10791, 10792, 10793, 10794, 10795, 10796, 10797, 10798, 10799, 10800, 
10801, 10802, 10803, 10804, 10805, 10806, 10807, 10808, 10809, 10810, 
10811, 10812, 10813, 10814, 10815, 10816, 10817, 10818, 10819, 10820, 
10821, 10822, 10823, 10824, 10825, 10826, 10827, 10828, 10829, 10830, 
10831, 10832, 10833, 10834, 10835, 10836, 10837, 10838, 10839, 10840, 
10841, 10842, 10843, 10844, 10845, 10846, 10847, 10848, 10849, 10850, 
10851, 10852, 10853, 10854, 10855, 10856, 10857, 10858, 10859, 10860, 
** ... 19 like lines cut
*Elset, elset=M18
11291, 11292, 11293, 11294, 11295, 11296, 11297, 11298, 11299, 11300, 
11301, 11302, 11303, 11304, 11305, 11306, 11307, 11308, 11309, 11310, 
11311, 11312, 11313, 11314, 11315, 11316, 11317, 11318, 11319, 11320, 
11321, 11322, 11323, 11324, 11325, 11326, 11327, 11328, 11329, 11330, 
11331, 11332, 11333, 11334, 11335, 11336, 11337, 11338, 11339, 11340, 
11341, 11342, 11343, 11344, 11345, 11346, 11347, 11348, 11349, 11350, 
11351, 11352, 11353, 11354, 11355, 11356, 11357, 11358, 11359, 11360, 
11361, 11362, 11363, 11364, 11365, 11366, 11367, 11368, 11369, 11370, 
11371, 11372, 11373, 11374, 11375, 11376, 11377, 11378, 11379, 11380, 
11381, 11382, 11383, 11384, 11385, 11386, 11387, 11388, 11389, 11390, 
11391, 11392, 11393, 11394, 11395, 11396, 11397, 11398, 11399, 11400, 
11401, 11402, 11403, 11404, 11405, 11406, 11407, 11408, 11409, 11410, 
11411, 11412, 11413, 11414, 11415, 11416, 11417, 11418, 11419, 11420, 
11421, 11422, 11423, 11424, 11425, 11426, 11427, 11428, 11429, 11430, 
11431, 11432, 11433, 11434, 11435, 11436, 11437, 11438, 11439, 11440, 
11441, 11442, 11443, 11444, 11445, 11446, 11447, 11448, 11449, 11450, 
11451, 11452, 11453, 11454, 11455, 11456, 11457, 11458, 11459, 11460, 
11461, 11462, 11463, 11464, 11465, 11466, 11467, 11468, 11469, 11470, 
11471, 11472, 11473, 11474, 11475, 11476, 11477, 11478, 11479, 11480, 
11481, 11482, 11483, 11484, 11485, 11486, 11487, 11488, 11489, 11490, 
** ... 57 like lines cut
*Elset, elset=M19
12054, 12055, 12056, 12057, 12058, 12059, 12060, 12061, 12062, 12063, 
12064, 12065, 12066, 12067, 12068, 12069, 12070, 12071, 12072, 12073, 
12074, 12075, 12076, 12077, 12078, 12079, 12080, 12081, 12082, 12083, 
12084, 12085, 12086, 12087, 12088, 12089, 12090, 12091, 12092, 12093, 
12094, 12095, 12096, 12097, 12098, 12099, 12100, 12101, 12102, 12103, 
12104, 12105, 12106, 12107, 12108, 12109, 12110, 12111, 12112, 12113, 
12114, 12115, 12116, 12117, 12118, 12119, 12120, 12121, 12122, 12123, 
12124, 12125, 12126, 12127, 12128, 12129, 12130, 12131, 12132, 12133, 
12134, 12135, 12136, 12137, 12138, 12139, 12140, 12141, 12142, 12143, 
12144, 12145, 12146, 12147, 12148, 12149, 12150, 12151, 12152, 12153, 
12154, 12155, 12156, 12157, 12158, 12159, 12160, 12161, 12162, 12163, 
12164, 12165, 12166, 12167, 12168, 12169, 12170, 12171, 12172, 12173, 
12174, 12175, 12176, 12177, 12178, 12179, 12180, 12181, 12182, 12183, 
12184, 12185, 12186, 12187, 12188, 12189, 12190, 12191, 12192, 12193, 
12194, 12195, 12196, 12197, 12198, 12199, 12200, 12201, 12202, 12203, 
12204, 12205, 12206, 12207, 12208, 12209, 12210, 12211, 12212, 12213, 
12214, 12215, 12216, 12217, 12218, 12219, 12220, 12221, 12222, 12223, 
12224, 12225, 12226, 12227, 12228, 12229, 12230, 12231, 12232, 12233, 
12234, 12235, 12236, 12237, 12238, 12239, 12240, 12241, 12242, 12243, 
12244, 12245, 12246, 12247, 12248, 12249, 12250, 12251, 12252, 12253, 
** ... 53 like lines cut
*Nset, nset=N1
6, 28, 40, 55, 124, 125, 126, 127, 130, 
131, 137, 138, 141, 144, 149, 150, 153, 154, 155, 
445, 448, 452, 455, 509, 510, 511, 512, 513, 514, 
515, 517, 518, 519, 523, 524, 525, 526, 527, 528, 
529, 530, 531, 533, 534, 536, 538, 541, 542, 543, 
544, 545, 2045, 2046, 2047, 2048, 2049, 2050, 2051, 2052, 
2053, 2054, 2055, 2056, 2057, 2058, 2059, 2060, 3796, 3800, 
3801, 3802, 5073, 5074, 5086, 5087, 5991, 5992, 5993, 5994, 
5995, 5996, 5997, 5998, 6007, 6008, 7143, 7154, 7155, 7156, 
7157, 7158, 7159, 7160, 7161, 9600, 9601, 9655, 9656, 10988, 
10989, 10990, 10995, 10996
*Nset, nset=N2
196, 200, 206, 208, 211, 213, 220, 227, 228, 
370, 372, 374, 375, 377, 379, 383, 385, 389, 392, 
395, 459, 460, 463, 464, 466, 468, 469, 472, 473, 
474, 476, 477, 478, 479, 480, 481, 482, 483, 484, 
485, 486, 487, 488, 489, 490, 491, 492, 493, 502, 
505, 507, 1351, 1352, 1353, 1354, 1355, 1356, 1357, 1358, 
1359, 1360, 3715, 3716, 3717, 3718, 3719, 3720, 3721, 3722, 
3723, 3724, 3725, 3726, 8254, 8255, 8256, 8257, 8258, 8259, 
8260, 8261, 8262, 10886, 10887, 10888, 10889, 10890, 10891, 10892, 
10893, 10894, 10895, 10896, 11593, 11594, 11595, 13311, 13312, 13313, 
13314, 13315, 13316, 13317
*Nset, nset=N3
74, 76, 77, 79, 80, 81, 86, 89, 90, 
93, 95, 99, 102, 104, 106, 107, 108, 111, 112, 
113, 115, 122, 123, 128, 129, 134, 136, 145, 349, 
351, 354, 356, 357, 358, 360, 361, 362, 364, 365, 
366, 367, 369, 497, 498, 499, 500, 501, 503, 504, 
506, 508, 1090, 1091, 1092, 1093, 1094, 1095, 1096, 1097, 
1098, 1099, 1100, 1101, 1102, 1103, 1104, 2017, 2018, 2019, 
2020, 2021, 2022, 2023, 2060, 2816, 2817, 2818, 2819, 2820, 
2821, 2822, 2823, 2824, 2825, 2826, 2827, 2828, 2829, 2830, 
2831, 2832, 2833, 2834, 2835, 11587, 11588, 11589, 11590, 11591, 
11592, 11593, 11596, 11597
*Nset, nset=N4
1, 2, 3, 7, 9, 15, 17, 19, 22, 
25, 26, 27, 33, 35, 39, 43, 46, 59, 60, 
61, 62, 63, 67, 191, 192, 195, 198, 202, 203, 
205, 210, 214, 218, 225, 418, 419, 420, 421, 422, 
423, 425, 426, 427, 430, 431, 433, 535, 537, 540, 
4707, 4708, 4709, 4710, 4711, 4712, 4713, 4714, 4715, 4716, 
4717, 4718, 4719, 8262, 8263, 8264, 8265, 8266, 8267, 8268, 
8269, 8270, 8271, 8272, 9607, 9609, 9610, 9611, 9612, 9613, 
9614, 9615, 9616, 9617, 9618, 9619, 9620, 9621, 9622, 9623, 
9624, 9625, 9626, 9627, 9628, 9629, 9630, 9631, 10990, 10991, 
10992, 10993
** Section: Section-1-M1
*Solid Section, elset=M1, material=A1
1.,
** Section: Section-2-M2
*Solid Section, elset=M2, material=A2
1.,
** Section: Section-3-M3
*Solid Section, elset=M3, material=A3
1.,
** Section: Section-4-M4
*Solid Section, elset=M4, material=A4
1.,
** Section: Section-5-M5
*Solid Section, elset=M5, material=A5
1.,
** Section: Section-6-M6
*Solid Section, elset=M6, material=A6
1.,
** Section: Section-7-M7
*Solid Section, elset=M7, material=A7
1.,
** Section: Section-8-M8
*Solid Section, elset=M8, material=A8
1.,
** Section: Section-9-M9
*Solid Section, elset=M9, material=A9
1.,
** Section: Section-10-M10
*Solid Section, elset=M10, material=A10
1.,
** Section: Section-11-M11
*Solid Section, elset=M11, material=A11
1.,
** Section: Section-12-M12
*Solid Section, elset=M12, material=A12
1.,
** Section: Section-13-M13
*Solid Section, elset=M13, material=A13
1.,
** Section: Section-14-M14
*Solid Section, elset=M14, material=A14
1.,
** Section: Section-15-M15
*Solid Section, elset=M15, material=A15
1.,
** Section: Section-16-M16
*Solid Section, elset=M16, material=A16
1.,
** Section: Section-17-M17
*Solid Section, elset=M17, material=A17
1.,
** Section: Section-18-M18
*Solid Section, elset=M18, material=A18
1.,
** Section: Section-19-M19
*Solid Section, elset=M19, material=A19
1.,
*End Part
**
**
** ASSEMBLY
**
* Assembly, name=Assembly
**
*Instance, name=PART-1-1, part=PART-1
*End Instance
**
*End Assembly
**
** MATERIALS
**
*Material, name=A1
*Elastic
2.1e+11, 0.3
*Plastic
7.18936e+08, 0
*Material, name=A2
*Elastic
2.1e+11, 0.3
*Plastic
7.18936e+08, 0
*Material, name=A3
*Elastic
2.1e+11, 0.3
*Plastic
7.18936e+08, 0
*Material, name=A4
*Elastic
2.1e+11, 0.3
*Plastic
7.18936e+08, 0
*Material, name=A5
*Elastic
2.1e+11, 0.3
*Plastic
7.18936e+08, 0
*Material, name=A6
*Elastic
2.1e+11, 0.3
*Plastic
7.18936e+08, 0
*Material, name=A7
*Elastic
2.1e+11, 0.3
*Plastic
7.18936e+08, 0
*Material, name=A8
*Elastic
2.1e+11, 0.3
*Plastic
7.18936e+08, 0
*Material, name=A9
*Elastic
2.1e+11, 0.3
*Plastic
7.18936e+08, 0
*Material, name=A10
*Elastic
2.1e+11, 0.3
*Plastic
7.18936e+08, 0
*Material, name=A11
*Elastic
2.1e+11, 0.3
*Plastic
7.18936e+08, 0
*Material, name=A12
*Elastic
2.1e+11, 0.3
*Plastic
7.18936e+08, 0
*Material, name=A13
*Elastic
2.1e+11, 0.3
*Plastic
7.18936e+08, 0
*Material, name=A14
*Elastic
2.1e+11, 0.3
*Plastic
7.18936e+08, 0
*Material, name=A15
*Elastic
2.1e+11, 0.3
*Plastic
7.18936e+08, 0
*Material, name=A16
*Elastic
2.1e+11, 0.3
*Plastic
7.18936e+08, 0
*Material, name=A17
*Elastic
2.1e+11, 0.3
*Plastic
7.18936e+08, 0
*Material, name=A18
*Elastic
2.1e+11, 0.3
*Plastic
7.18936e+08, 0
*Material, name=A19
*Elastic
2.1e+11, 0.3
*Plastic
7.18936e+08, 0
** ----------------------------------------------------------------
**
** STEP: Step-1
**
*Step, name=Step-1, nlgeom=YES
*Static
1., 1., 1e-05, 1.
**
** BOUNDARY CONDITIONS
**
** Name: BC-1 Type: Displacement/Rotation
*Boundary
PART-1-1.N2, 1, 1, -15.
** Name: BC-2 Type: Displacement/Rotation
*Boundary
PART-1-1.N1, 1, 1
PART-1-1.N1, 2, 2
PART-1-1.N1, 6, 6
**
** OUTPUT REQUESTS
**
*Restart, write, frequency=0
**
** FIELD OUTPUT: F-Output-1
**
*Output, field, variable=PRESELECT
**
** HISTORY OUTPUT: H-Output-1
**
*Output, history, variable=PRESELECT
*End Step
